/*--------------------------------*- C++ -*----------------------------------*\
| =========                 |                                                 |
| \\      /  F ield         | foam-extend: Open Source CFD                    |
|  \\    /   O peration     | Version:     4.0                                |
|   \\  /    A nd           | Web:         http://www.foam-extend.org         |
|    \\/     M anipulation  |                                                 |
\*---------------------------------------------------------------------------*/
FoamFile
{
    version     2.0;
    format      ascii;
    class       polyBoundaryMesh;
    location    "constant/polyMesh";
    object      boundary;
}
// * * * * * * * * * * * * * * * * * * * * * * * * * * * * * * * * * * * * * //

7
(
    rightHand
    {
        type            patch;
        nFaces          1251;
        startFace       182399;
    }
    outerRadius
    {
        type            patch;
        nFaces          1200;
        startFace       183650;
    }
    leftHand
    {
        type            patch;
        nFaces          1249;
        startFace       184850;
    }
    outlet
    {
        type            patch;
        nFaces          2500;
        startFace       186099;
    }
    inlet
    {
        type            patch;
        nFaces          0;
        startFace       188599;
    }
    innerRadius
    {
        type            wall;
        nFaces          1350;
        startFace       188599;
    }
    procBoundary0to1
    {
        type            processor;
        nFaces          2652;
        startFace       189949;
        myProcNo        0;
        neighbProcNo    1;
    }
)


// ************************************************************************* //
