/*--------------------------------*- C++ -*----------------------------------*\
| =========                 |                                                 |
| \\      /  F ield         | foam-extend: Open Source CFD                    |
|  \\    /   O peration     | Version:     4.0                                |
|   \\  /    A nd           | Web:         http://www.foam-extend.org         |
|    \\/     M anipulation  |                                                 |
\*---------------------------------------------------------------------------*/
FoamFile
{
    version     2.0;
    format      ascii;
    class       dictionary;
    location    "system";
    object      rheologyProperties;
}
// * * * * * * * * * * * * * * * * * * * * * * * * * * * * * * * * * * * * * //
//this file describes the solid mechanics properties 
planeStress     no;

rheology
{
    type                    multiMaterial;

    laws
    (
        melt
        {
            type            linearElastic;
            rho             rho [1 -3 0 0 0 0 0] 7.8e3;
            E               E [1 -1 -2 0 0 0 0] 2e11;
            nu              nu [0 0 0 0 0 0 0] 0.3;
        }

        steel
        {
            type            linearElastic;
            rho             rho [1 -3 0 0 0 0 0] 7.8e3;
            E               E [1 -1 -2 0 0 0 0] 2e11;
            nu              nu [0 0 0 0 0 0 0] 0.3;
        }
		
		air
        {
            type            linearElastic;
            rho             rho [1 -3 0 0 0 0 0] 7.8e3;
            E               E [1 -1 -2 0 0 0 0] 2e7;
            nu              nu [0 0 0 0 0 0 0] 0.3;
        }
		
    );
}


// ************************************************************************* //
