/*--------------------------------*- C++ -*----------------------------------*\
  =========                 |
| \\      /  F ield         | OpenFOAM: The Open Source CFD Toolbox           |
|  \\    /   O peration     | Version:  6.0                                   |
|   \\  /    A nd           | Website:  https://openfoam.org                  |
|    \\/     M anipulation  |                                                 |
\*---------------------------------------------------------------------------*/
FoamFile
{
    version     2.0;
    format      ascii;
    class       dictionary;
    object      setFieldsDict;
}
// * * * * * * * * * * * * * * * * * * * * * * * * * * * * * * * * * * * * * //

defaultFieldValues
(
            volScalarFieldValue materials 1	//indicates non-fluid part of the mesh
            volScalarFieldValue DT 1.1e-5	//thermal diffusivity of 1.2738
);

regions
(


	cylinderToCell
	{
	p1 (-100 0 0);
	p2 (0 0 0);
	radius 0.02;


 	fieldValues
        (
			//everything here is melt (materials 0, DT = 3e-7)
            volScalarFieldValue materials 0
            volScalarFieldValue DT 3e-7
        );
		}

	cylinderToCell
	{
	p1 (0 0 0);
	p2 (100 0 0);
	radius 0.02;


 	fieldValues
        (
			//everything here is melt (materials 0, DT = 3e-7)
            volScalarFieldValue materials 0
            volScalarFieldValue DT 3e-7
        );
		}

	boxToCell
	{
	box (-100 -100 -0.003)(100 100 0.003);


 	fieldValues
        (
			//everything here is melt (materials 0, DT = 3e-7)
            volScalarFieldValue materials 1
            volScalarFieldValue DT 1.1e-5
        );
		}


);

 

// *********************
