/*--------------------------------*- C++ -*----------------------------------*\
| =========                 |                                                 |
| \\      /  F ield         | OpenFOAM: The Open Source CFD Toolbox           |
|  \\    /   O peration     | Version:  4.0                                   |
|   \\  /    A nd           | Web:      www.OpenFOAM.org                      |
|    \\/     M anipulation  |                                                 |
\*---------------------------------------------------------------------------*/
FoamFile
{
    version     2.0;
    format      ascii;
    class       dictionary;
    object      topoSetDict;
}

// * * * * * * * * * * * * * * * * * * * * * * * * * * * * * * * * * * * * * //

actions
(

{
        //marks all cells with vertical distance of less than 3 mm from parting plane (x=0) for removal
	name    cellsToBeRemoved;
        type    cellSet;
        action  new;
        source  boxToCell;
        sourceInfo
        {
		box   (-3e-3 -100 -100) (3e-3 100 100);
    	}
		

}
    

{
        //however, cells inside the stl and those on the outside in close proximity may stay and form sealing surface
	name    cellsToBeRemoved;
        type    cellSet;
        action  delete;
        source  surfaceToCell;
	
        sourceInfo
        {
     
   
		file			"flowChannel.stl";

		outsidePoints	((0 0 -10e-3));
		useSurfaceOrientation false;
		
		
		//enable one of the following five
		nearDistance 	7.5e-3;		//-1 means deactivated, otherwise: pick all cells within [value] m of geometry.stl
		includeInside	true;		// pick all cells entirely within the geometry.stl
		includeOutside	false;		// pick all cells entirely outside of geometry.stl
		includeCut	true;		// pick all cells intersected by geometry.stl
		curvature	-100;		//-100 means deactivated, combine this with nearDistance
			
	}
}



{
       //however, cells inside the stl and those on the outside in close proximity may stay and form sealing surface
	name    cellsToBeRemoved;
        type    cellSet;
        action  delete;
        source  surfaceToCell;
	
        sourceInfo
        {
     
   
		file			"inletChannel.stl";

		outsidePoints	((0 0 10e-3));
		useSurfaceOrientation false;
		
		
		//enable one of the following five
		nearDistance 	5e-3;		//-1 means deactivated, otherwise: pick all cells within [value] m of geometry.stl
		includeInside	true;		// pick all cells entirely within the geometry.stl
		includeOutside	false;		// pick all cells entirely outside of geometry.stl
		includeCut	true;		// pick all cells intersected by geometry.stl
		curvature	-100;		//-100 means deactivated, combine this with nearDistance
			
	}
		

}



);





// ************************************************************************* //
