/*--------------------------------*- C++ -*----------------------------------*\
| =========                 |                                                 |
| \\      /  F ield         | foam-extend: Open Source CFD                    |
|  \\    /   O peration     | Version:     4.0                                |
|   \\  /    A nd           | Web:         http://www.foam-extend.org         |
|    \\/     M anipulation  |                                                 |
\*---------------------------------------------------------------------------*/
FoamFile
{
    version     2.0;
    format      ascii;
    class       volScalarField;
    location    "0";
    object      DT;
}
// * * * * * * * * * * * * * * * * * * * * * * * * * * * * * * * * * * * * * //

dimensions      [0 2 -1 0 0 0 0];

internalField   uniform 1e-05;

boundaryField
{
    defaultFaces
    {
        type            empty;
    }
    inlet
    {
        type            zeroGradient;
    }
    defaultName
    {
        type            zeroGradient;
    }
    outlet
    {
        type            zeroGradient;
    }
    backFace
    {
        type            zeroGradient;
    }
}


// ************************************************************************* //
