/*--------------------------------*- C++ -*----------------------------------*\
| =========                 |                                                 |
| \\      /  F ield         | foam-extend: Open Source CFD                    |
|  \\    /   O peration     | Version:     4.0                                |
|   \\  /    A nd           | Web:         http://www.foam-extend.org         |
|    \\/     M anipulation  |                                                 |
\*---------------------------------------------------------------------------*/
FoamFile
{
    version     2.0;
    format      ascii;
    class       surfaceScalarField;
    location    "constant/polyMesh";
    object      magSf;
}
// * * * * * * * * * * * * * * * * * * * * * * * * * * * * * * * * * * * * * //

dimensions      [0 2 0 0 0 0 0];

internalField   nonuniform List<scalar> 
269192
(
3.55071e-07
6.80939e-07
1.87211e-06
4.6255e-07
1.20971e-06
2.47579e-06
4.53438e-07
1.46266e-06
2.72801e-06
4.62375e-07
1.42348e-06
2.58395e-06
4.62938e-07
1.42303e-06
2.58384e-06
4.55625e-07
1.39845e-06
2.58384e-06
4.55625e-07
1.37387e-06
2.58384e-06
4.55625e-07
1.37387e-06
2.58384e-06
4.55625e-07
1.37387e-06
2.58384e-06
4.55625e-07
1.54561e-06
2.90682e-06
4.55625e-07
1.37387e-06
2.58384e-06
4.55625e-07
1.37387e-06
2.58384e-06
4.55625e-07
1.37387e-06
2.58384e-06
4.55625e-07
1.37387e-06
2.58384e-06
4.55625e-07
1.37387e-06
2.58384e-06
4.55625e-07
1.54561e-06
2.90682e-06
4.55625e-07
1.37387e-06
2.58384e-06
4.55625e-07
1.37387e-06
2.58384e-06
4.55625e-07
1.37387e-06
2.58384e-06
4.55625e-07
1.37387e-06
2.58384e-06
4.55625e-07
1.37387e-06
2.58384e-06
4.55625e-07
1.54561e-06
2.90682e-06
4.55625e-07
1.37387e-06
2.58384e-06
4.55625e-07
1.37387e-06
2.58384e-06
4.55625e-07
1.37387e-06
2.58384e-06
4.55625e-07
1.37387e-06
2.58384e-06
4.55625e-07
1.37387e-06
2.58384e-06
4.55625e-07
1.37387e-06
2.58384e-06
4.55625e-07
1.54561e-06
2.90682e-06
4.55625e-07
1.37387e-06
2.58384e-06
4.55625e-07
1.37387e-06
2.58384e-06
4.55625e-07
1.37387e-06
2.58384e-06
4.55625e-07
1.37387e-06
2.58384e-06
4.55625e-07
1.37387e-06
2.58384e-06
4.55625e-07
1.54561e-06
2.90682e-06
4.55625e-07
1.37387e-06
2.58384e-06
4.55625e-07
1.37387e-06
2.58384e-06
4.55625e-07
1.37387e-06
2.58384e-06
4.55625e-07
1.37387e-06
2.58384e-06
4.55625e-07
1.37387e-06
2.58384e-06
4.55625e-07
1.54561e-06
2.90682e-06
4.55625e-07
1.37387e-06
2.58384e-06
4.55625e-07
1.37387e-06
2.58384e-06
4.55625e-07
1.37387e-06
2.58384e-06
4.55625e-07
1.37387e-06
2.58384e-06
4.47219e-07
1.37387e-06
2.5864e-06
4.45031e-07
1.37434e-06
2.58176e-06
3.995e-07
1.3268e-06
2.53254e-06
8.19721e-07
1.49629e-06
5.63983e-07
8.15792e-07
2.28333e-06
7.14e-07
1.44843e-06
2.04571e-06
7.2475e-07
1.75664e-06
2.28409e-06
7.27125e-07
1.70015e-06
2.03236e-06
7.27125e-07
1.70012e-06
2.03485e-06
7.14344e-07
1.70012e-06
2.03485e-06
7.14344e-07
1.70012e-06
2.03485e-06
7.14344e-07
1.70012e-06
2.03485e-06
7.14344e-07
1.70012e-06
2.03485e-06
7.14344e-07
1.91263e-06
2.28921e-06
7.14344e-07
1.70012e-06
2.03485e-06
7.14344e-07
1.70012e-06
2.03485e-06
7.14344e-07
1.70012e-06
2.03485e-06
7.14344e-07
1.70012e-06
2.03485e-06
7.14344e-07
1.70012e-06
2.03485e-06
7.14344e-07
1.91263e-06
2.28921e-06
7.14344e-07
1.70012e-06
2.03485e-06
7.14344e-07
1.70012e-06
2.03485e-06
7.14344e-07
1.70012e-06
2.03485e-06
7.14344e-07
1.70012e-06
2.03485e-06
7.14344e-07
1.70012e-06
2.03485e-06
7.14344e-07
1.91263e-06
2.28921e-06
7.14344e-07
1.70012e-06
2.03485e-06
7.14344e-07
1.70012e-06
2.03485e-06
7.14344e-07
1.70012e-06
2.03485e-06
7.14344e-07
1.70012e-06
2.03485e-06
7.14344e-07
1.70012e-06
2.03485e-06
7.14344e-07
1.70012e-06
2.03485e-06
7.14344e-07
1.91263e-06
2.28921e-06
7.14344e-07
1.70012e-06
2.03485e-06
7.14344e-07
1.70012e-06
2.03485e-06
7.14344e-07
1.70012e-06
2.03485e-06
7.14344e-07
1.70012e-06
2.03485e-06
7.14344e-07
1.70012e-06
2.03485e-06
7.14344e-07
1.91263e-06
2.28921e-06
7.14344e-07
1.70012e-06
2.03485e-06
7.14344e-07
1.70012e-06
2.03485e-06
7.14344e-07
1.70012e-06
2.03485e-06
7.14344e-07
1.70012e-06
2.03485e-06
7.14344e-07
1.70012e-06
2.03485e-06
7.14344e-07
1.91263e-06
2.28921e-06
7.14344e-07
1.70012e-06
2.03485e-06
7.14344e-07
1.70012e-06
2.03485e-06
7.27125e-07
1.72512e-06
2.03259e-06
7.27125e-07
1.75011e-06
2.03055e-06
7.12438e-07
1.72512e-06
2.0301e-06
7.1125e-07
1.70012e-06
2.02988e-06
6.72438e-07
1.6752e-06
2.02546e-06
1.0798e-06
1.24144e-06
6.75727e-07
6.26432e-07
2.2758e-06
8.63273e-07
1.50327e-06
2.06329e-06
8.66125e-07
1.8344e-06
2.29248e-06
8.8e-07
1.77501e-06
2.0375e-06
8.82187e-07
1.80001e-06
2.03734e-06
8.82187e-07
1.80001e-06
2.03983e-06
8.82187e-07
1.80001e-06
2.03983e-06
8.82187e-07
1.80001e-06
2.03983e-06
8.82187e-07
1.80001e-06
2.03983e-06
8.82187e-07
2.02501e-06
2.29481e-06
8.82187e-07
1.80001e-06
2.03983e-06
8.82187e-07
1.80001e-06
2.03983e-06
8.82187e-07
1.80001e-06
2.03983e-06
8.82187e-07
1.80001e-06
2.03983e-06
8.82187e-07
1.80001e-06
2.03983e-06
8.82187e-07
2.02501e-06
2.29481e-06
8.82187e-07
1.80001e-06
2.03983e-06
8.82187e-07
1.80001e-06
2.03983e-06
8.82187e-07
1.80001e-06
2.03983e-06
8.82187e-07
1.80001e-06
2.03983e-06
8.82187e-07
1.80001e-06
2.03983e-06
8.82187e-07
2.02501e-06
2.29481e-06
8.82187e-07
1.80001e-06
2.03983e-06
8.82187e-07
1.80001e-06
2.03983e-06
8.82187e-07
1.80001e-06
2.03983e-06
8.82187e-07
1.80001e-06
2.03983e-06
8.82187e-07
1.80001e-06
2.03983e-06
8.82187e-07
1.80001e-06
2.03983e-06
8.82187e-07
2.02501e-06
2.29481e-06
8.82187e-07
1.80001e-06
2.03983e-06
8.82187e-07
1.80001e-06
2.03983e-06
8.82187e-07
1.80001e-06
2.03983e-06
8.82187e-07
1.80001e-06
2.03983e-06
8.82187e-07
1.80001e-06
2.03983e-06
8.82187e-07
2.02501e-06
2.29481e-06
8.82187e-07
1.80001e-06
2.03983e-06
8.82187e-07
1.80001e-06
2.03983e-06
8.82187e-07
1.80001e-06
2.03983e-06
8.82187e-07
1.80001e-06
2.03983e-06
8.82187e-07
1.80001e-06
2.03983e-06
8.82187e-07
2.02501e-06
2.29481e-06
8.82187e-07
1.80001e-06
2.03983e-06
8.82187e-07
1.80001e-06
2.03983e-06
8.9475e-07
1.80001e-06
2.04247e-06
8.92531e-07
1.80001e-06
2.04285e-06
8.8e-07
1.80001e-06
2.0375e-06
8.80937e-07
1.8e-06
2.03485e-06
8.6425e-07
1.77502e-06
2.04498e-06
1.18763e-06
1.29253e-06
7.00803e-07
5.73517e-07
1.7645e-06
9.06042e-07
1.52518e-06
2.0642e-06
9.06469e-07
1.86252e-06
2.30657e-06
9.1825e-07
1.8e-06
2.04753e-06
9.16e-07
1.80001e-06
2.04729e-06
9.1725e-07
1.80002e-06
2.04729e-06
9.1725e-07
1.80003e-06
2.04978e-06
9.1725e-07
1.80003e-06
2.04978e-06
9.1725e-07
1.80003e-06
2.04978e-06
9.1725e-07
2.02503e-06
2.306e-06
9.1725e-07
1.80003e-06
2.04978e-06
9.1725e-07
1.80003e-06
2.04978e-06
9.1725e-07
1.80003e-06
2.04978e-06
9.1725e-07
1.80003e-06
2.04978e-06
9.1725e-07
1.80003e-06
2.04978e-06
9.1725e-07
2.02503e-06
2.306e-06
9.1725e-07
1.80003e-06
2.04978e-06
9.1725e-07
1.80003e-06
2.04978e-06
9.1725e-07
1.80003e-06
2.04978e-06
9.1725e-07
1.80003e-06
2.04978e-06
9.1725e-07
1.80003e-06
2.04978e-06
9.1725e-07
2.02503e-06
2.306e-06
9.1725e-07
1.80003e-06
2.04978e-06
9.1725e-07
1.80003e-06
2.04978e-06
9.1725e-07
1.80003e-06
2.04978e-06
9.1725e-07
1.80003e-06
2.04978e-06
9.1725e-07
1.80003e-06
2.04978e-06
9.1725e-07
1.80003e-06
2.04978e-06
9.1725e-07
2.02503e-06
2.306e-06
9.1725e-07
1.80003e-06
2.04978e-06
9.1725e-07
1.80003e-06
2.04978e-06
9.1725e-07
1.80003e-06
2.04978e-06
9.1725e-07
1.80003e-06
2.04978e-06
9.1725e-07
1.80003e-06
2.04978e-06
9.1725e-07
2.02503e-06
2.306e-06
9.1725e-07
1.80003e-06
2.04978e-06
9.1725e-07
1.80003e-06
2.04978e-06
9.1725e-07
1.80003e-06
2.04978e-06
9.1725e-07
1.80003e-06
2.04978e-06
9.1725e-07
1.80003e-06
2.04978e-06
9.1725e-07
2.02503e-06
2.306e-06
9.1725e-07
1.80003e-06
2.04978e-06
9.16e-07
1.80002e-06
2.04729e-06
9.16e-07
1.80001e-06
2.0448e-06
9.1825e-07
1.80001e-06
2.04729e-06
9.1825e-07
1.80001e-06
2.04978e-06
9.17e-07
1.80001e-06
2.04978e-06
9.0425e-07
1.80003e-06
2.04754e-06
1.23466e-06
1.28962e-06
8.35678e-07
1.46889e-06
1.86361e-06
9.38549e-07
1.77814e-06
2.0871e-06
9.2375e-07
1.91251e-06
2.32378e-06
9.2175e-07
1.80002e-06
2.06222e-06
9.2275e-07
1.80002e-06
2.05973e-06
9.2175e-07
1.80001e-06
2.05724e-06
9.2175e-07
1.80001e-06
2.05476e-06
9.2175e-07
1.80001e-06
2.05476e-06
9.2175e-07
1.80001e-06
2.05476e-06
9.2175e-07
2.02501e-06
2.3116e-06
9.2175e-07
1.80001e-06
2.05476e-06
9.2175e-07
1.80001e-06
2.05476e-06
9.2175e-07
1.80001e-06
2.05476e-06
9.2175e-07
1.80001e-06
2.05476e-06
9.2175e-07
1.80001e-06
2.05476e-06
9.2175e-07
2.02501e-06
2.3116e-06
9.2175e-07
1.80001e-06
2.05476e-06
9.2175e-07
1.80001e-06
2.05476e-06
9.2175e-07
1.80001e-06
2.05476e-06
9.2175e-07
1.80001e-06
2.05476e-06
9.2175e-07
1.80001e-06
2.05476e-06
9.2175e-07
2.02501e-06
2.3116e-06
9.2175e-07
1.80001e-06
2.05476e-06
9.2175e-07
1.80001e-06
2.05476e-06
9.2175e-07
1.80001e-06
2.05476e-06
9.2175e-07
1.80001e-06
2.05476e-06
9.2175e-07
1.80001e-06
2.05476e-06
9.2175e-07
1.80001e-06
2.05476e-06
9.2175e-07
2.02501e-06
2.3116e-06
9.2175e-07
1.80001e-06
2.05476e-06
9.2175e-07
1.80001e-06
2.05476e-06
9.2175e-07
1.80001e-06
2.05476e-06
9.2175e-07
1.80001e-06
2.05476e-06
9.2175e-07
1.80001e-06
2.05476e-06
9.2175e-07
2.02501e-06
2.3116e-06
9.2175e-07
1.80001e-06
2.05476e-06
9.2175e-07
1.80001e-06
2.05476e-06
9.2175e-07
1.80001e-06
2.05476e-06
9.2175e-07
1.80001e-06
2.05476e-06
9.2175e-07
1.80001e-06
2.05476e-06
9.2175e-07
2.02501e-06
2.3116e-06
9.2175e-07
1.80001e-06
2.05476e-06
9.2175e-07
1.80002e-06
2.05724e-06
9.2175e-07
1.80003e-06
2.05973e-06
9.205e-07
1.80002e-06
2.05724e-06
9.205e-07
1.80001e-06
2.05476e-06
9.3325e-07
1.82501e-06
2.05251e-06
9.3248e-07
1.71255e-06
2.05003e-06
1.37867e-06
1.29296e-06
9.81731e-07
1.61269e-06
1.586e-06
9.78409e-07
1.87189e-06
2.07741e-06
9.40094e-07
1.96563e-06
2.32925e-06
9.39063e-07
1.85001e-06
2.06296e-06
9.39063e-07
1.85002e-06
2.06296e-06
9.39063e-07
1.85003e-06
2.06545e-06
9.39063e-07
1.85003e-06
2.06545e-06
9.39063e-07
1.85003e-06
2.06545e-06
9.39063e-07
1.85003e-06
2.06545e-06
9.39063e-07
2.08128e-06
2.32364e-06
9.39063e-07
1.85003e-06
2.06545e-06
9.39063e-07
1.85003e-06
2.06545e-06
9.39063e-07
1.85003e-06
2.06545e-06
9.39063e-07
1.85003e-06
2.06545e-06
9.39063e-07
1.85003e-06
2.06545e-06
9.39063e-07
2.08128e-06
2.32364e-06
9.39063e-07
1.85003e-06
2.06545e-06
9.39063e-07
1.85003e-06
2.06545e-06
9.39063e-07
1.85003e-06
2.06545e-06
9.39063e-07
1.85003e-06
2.06545e-06
9.39063e-07
1.85003e-06
2.06545e-06
9.39063e-07
2.08128e-06
2.32364e-06
9.39063e-07
1.85003e-06
2.06545e-06
9.39063e-07
1.85003e-06
2.06545e-06
9.39063e-07
1.85003e-06
2.06545e-06
9.39063e-07
1.85003e-06
2.06545e-06
9.39063e-07
1.85003e-06
2.06545e-06
9.39063e-07
1.85003e-06
2.06545e-06
9.39063e-07
2.08128e-06
2.32364e-06
9.39063e-07
1.85003e-06
2.06545e-06
9.39063e-07
1.85003e-06
2.06545e-06
9.39063e-07
1.85003e-06
2.06545e-06
9.39063e-07
1.85003e-06
2.06545e-06
9.39063e-07
1.85003e-06
2.06545e-06
9.39063e-07
2.08128e-06
2.32364e-06
9.39063e-07
1.85003e-06
2.06545e-06
9.39063e-07
1.85003e-06
2.06545e-06
9.39063e-07
1.85003e-06
2.06545e-06
9.39063e-07
1.85003e-06
2.06545e-06
9.39063e-07
1.85003e-06
2.06545e-06
9.39063e-07
2.08128e-06
2.32364e-06
9.37813e-07
1.85002e-06
2.06296e-06
9.39063e-07
1.85001e-06
2.06047e-06
9.39063e-07
1.85001e-06
2.06047e-06
9.37813e-07
1.85001e-06
2.06047e-06
9.37813e-07
1.85001e-06
2.06047e-06
9.49406e-07
1.85001e-06
2.05998e-06
9.81396e-07
1.75632e-06
2.05548e-06
1.44779e-06
1.30168e-06
1.06206e-06
1.9094e-06
1.59169e-06
1.01935e-06
1.99376e-06
2.07672e-06
9.86906e-07
2.07188e-06
2.33428e-06
9.86906e-07
1.95e-06
2.07741e-06
9.85813e-07
1.95e-06
2.07491e-06
9.85813e-07
1.95e-06
2.07241e-06
9.85813e-07
1.95e-06
2.07241e-06
9.85813e-07
1.95e-06
2.07241e-06
9.85813e-07
1.95e-06
2.07241e-06
9.85813e-07
2.19375e-06
2.33147e-06
9.85813e-07
1.95e-06
2.07241e-06
9.85813e-07
1.95e-06
2.07241e-06
9.85813e-07
1.95e-06
2.07241e-06
9.85813e-07
1.95e-06
2.07241e-06
9.85813e-07
1.95e-06
2.07241e-06
9.85813e-07
2.19375e-06
2.33147e-06
9.85813e-07
1.95e-06
2.07241e-06
9.85813e-07
1.95e-06
2.07241e-06
9.85813e-07
1.95e-06
2.07241e-06
9.85813e-07
1.95e-06
2.07241e-06
9.85813e-07
1.95e-06
2.07241e-06
9.85813e-07
2.19375e-06
2.33147e-06
9.85813e-07
1.95e-06
2.07241e-06
9.85813e-07
1.95e-06
2.07241e-06
9.85813e-07
1.95e-06
2.07241e-06
9.85813e-07
1.95e-06
2.07241e-06
9.85813e-07
1.95e-06
2.07241e-06
9.85813e-07
1.95e-06
2.07241e-06
9.85813e-07
2.19375e-06
2.33147e-06
9.85813e-07
1.95e-06
2.07241e-06
9.85813e-07
1.95e-06
2.07241e-06
9.85813e-07
1.95e-06
2.07241e-06
9.85813e-07
1.95e-06
2.07241e-06
9.85813e-07
1.95e-06
2.07241e-06
9.85813e-07
2.19375e-06
2.33147e-06
9.85813e-07
1.95e-06
2.07241e-06
9.85813e-07
1.95e-06
2.07241e-06
9.85813e-07
1.95e-06
2.07241e-06
9.85813e-07
1.95e-06
2.07241e-06
9.85813e-07
1.95e-06
2.07241e-06
9.85813e-07
2.19375e-06
2.33147e-06
9.86906e-07
1.95e-06
2.07491e-06
9.86906e-07
1.95e-06
2.07741e-06
9.85625e-07
1.95e-06
2.07491e-06
9.85625e-07
1.95001e-06
2.07241e-06
9.84531e-07
1.95001e-06
2.07241e-06
9.80875e-07
1.95002e-06
2.06992e-06
1.03979e-06
1.85007e-06
2.06757e-06
1.53295e-06
1.31288e-06
1.05982e-06
1.61283e-06
1.58978e-06
1.02085e-06
1.87192e-06
2.07672e-06
9.83438e-07
1.96566e-06
2.33147e-06
9.83438e-07
1.85003e-06
2.06742e-06
9.83438e-07
1.85003e-06
2.06742e-06
9.83438e-07
1.85003e-06
2.06742e-06
9.83438e-07
1.85003e-06
2.06742e-06
9.84719e-07
1.85004e-06
2.06742e-06
9.84719e-07
1.85006e-06
2.06742e-06
9.84719e-07
2.08132e-06
2.32585e-06
9.84719e-07
1.85006e-06
2.06742e-06
9.84719e-07
1.85006e-06
2.06742e-06
9.84719e-07
1.85006e-06
2.06742e-06
9.84719e-07
1.85006e-06
2.06742e-06
9.84719e-07
1.85006e-06
2.06742e-06
9.84719e-07
2.08132e-06
2.32585e-06
9.84719e-07
1.85006e-06
2.06742e-06
9.84719e-07
1.85006e-06
2.06742e-06
9.84719e-07
1.85006e-06
2.06742e-06
9.84719e-07
1.85006e-06
2.06742e-06
9.84719e-07
1.85006e-06
2.06742e-06
9.84719e-07
2.08132e-06
2.32585e-06
9.84719e-07
1.85006e-06
2.06742e-06
9.84719e-07
1.85006e-06
2.06742e-06
9.84719e-07
1.85006e-06
2.06742e-06
9.84719e-07
1.85006e-06
2.06742e-06
9.84719e-07
1.85006e-06
2.06742e-06
9.84719e-07
1.85006e-06
2.06742e-06
9.84719e-07
2.08132e-06
2.32585e-06
9.84719e-07
1.85006e-06
2.06742e-06
9.84719e-07
1.85006e-06
2.06742e-06
9.84719e-07
1.85006e-06
2.06742e-06
9.84719e-07
1.85006e-06
2.06742e-06
9.84719e-07
1.85006e-06
2.06742e-06
9.84719e-07
2.08132e-06
2.32585e-06
9.84719e-07
1.85006e-06
2.06742e-06
9.84719e-07
1.85006e-06
2.06742e-06
9.84719e-07
1.85006e-06
2.06742e-06
9.84719e-07
1.85006e-06
2.06742e-06
9.84719e-07
1.85006e-06
2.06742e-06
9.84719e-07
2.08132e-06
2.32585e-06
9.83438e-07
1.85004e-06
2.06742e-06
9.83438e-07
1.85003e-06
2.06742e-06
9.83625e-07
1.85004e-06
2.06742e-06
9.84719e-07
1.85004e-06
2.06992e-06
9.84719e-07
1.85005e-06
2.06992e-06
9.90562e-07
1.85005e-06
2.07491e-06
1.06593e-06
1.75629e-06
2.09506e-06
1.44844e-06
1.35113e-06
9.77302e-07
1.46896e-06
1.57838e-06
9.71526e-07
1.77815e-06
2.06492e-06
9.36781e-07
1.91251e-06
2.31803e-06
9.3575e-07
1.80002e-06
2.05797e-06
9.345e-07
1.80002e-06
2.05548e-06
9.345e-07
1.80001e-06
2.05548e-06
9.345e-07
1.80001e-06
2.05548e-06
9.33469e-07
1.80001e-06
2.05548e-06
9.33469e-07
1.80001e-06
2.05548e-06
9.33469e-07
2.02501e-06
2.31242e-06
9.33469e-07
1.80001e-06
2.05548e-06
9.33469e-07
1.80001e-06
2.05548e-06
9.33469e-07
1.80001e-06
2.05548e-06
9.33469e-07
1.80001e-06
2.05548e-06
9.33469e-07
1.80001e-06
2.05548e-06
9.33469e-07
2.02501e-06
2.31242e-06
9.33469e-07
1.80001e-06
2.05548e-06
9.33469e-07
1.80001e-06
2.05548e-06
9.33469e-07
1.80001e-06
2.05548e-06
9.33469e-07
1.80001e-06
2.05548e-06
9.33469e-07
1.80001e-06
2.05548e-06
9.33469e-07
2.02501e-06
2.31242e-06
9.33469e-07
1.80001e-06
2.05548e-06
9.33469e-07
1.80001e-06
2.05548e-06
9.33469e-07
1.80001e-06
2.05548e-06
9.33469e-07
1.80001e-06
2.05548e-06
9.33469e-07
1.80001e-06
2.05548e-06
9.33469e-07
1.80001e-06
2.05548e-06
9.33469e-07
2.02501e-06
2.31242e-06
9.33469e-07
1.80001e-06
2.05548e-06
9.33469e-07
1.80001e-06
2.05548e-06
9.33469e-07
1.80001e-06
2.05548e-06
9.33469e-07
1.80001e-06
2.05548e-06
9.33469e-07
1.80001e-06
2.05548e-06
9.33469e-07
2.02501e-06
2.31242e-06
9.33469e-07
1.80001e-06
2.05548e-06
9.33469e-07
1.80001e-06
2.05548e-06
9.33469e-07
1.80001e-06
2.05548e-06
9.33469e-07
1.80001e-06
2.05548e-06
9.33469e-07
1.80001e-06
2.05548e-06
9.33469e-07
2.02501e-06
2.31242e-06
9.33469e-07
1.80002e-06
2.05299e-06
9.33469e-07
1.80003e-06
2.05049e-06
9.34719e-07
1.80003e-06
2.05299e-06
9.3575e-07
1.80003e-06
2.05548e-06
9.49906e-07
1.82503e-06
2.05999e-06
9.51969e-07
1.85002e-06
2.0672e-06
1.00267e-06
1.73441e-06
2.06995e-06
1.39768e-06
1.31142e-06
8.31636e-07
5.888e-07
1.85045e-06
9.32953e-07
1.52518e-06
2.0796e-06
9.1825e-07
1.86251e-06
2.30976e-06
9.16e-07
1.8e-06
2.04978e-06
9.16e-07
1.8e-06
2.04729e-06
9.16e-07
1.80001e-06
2.0448e-06
9.16e-07
1.80001e-06
2.0448e-06
9.16e-07
1.80001e-06
2.0448e-06
9.16e-07
1.80001e-06
2.0448e-06
9.16e-07
2.02501e-06
2.3004e-06
9.16e-07
1.80001e-06
2.0448e-06
9.16e-07
1.80001e-06
2.0448e-06
9.16e-07
1.80001e-06
2.0448e-06
9.16e-07
1.80001e-06
2.0448e-06
9.16e-07
1.80001e-06
2.0448e-06
9.16e-07
2.02501e-06
2.3004e-06
9.16e-07
1.80001e-06
2.0448e-06
9.16e-07
1.80001e-06
2.0448e-06
9.16e-07
1.80001e-06
2.0448e-06
9.16e-07
1.80001e-06
2.0448e-06
9.16e-07
1.80001e-06
2.0448e-06
9.16e-07
2.02501e-06
2.3004e-06
9.16e-07
1.80001e-06
2.0448e-06
9.16e-07
1.80001e-06
2.0448e-06
9.16e-07
1.80001e-06
2.0448e-06
9.16e-07
1.80001e-06
2.0448e-06
9.16e-07
1.80001e-06
2.0448e-06
9.16e-07
1.80001e-06
2.0448e-06
9.16e-07
2.02501e-06
2.3004e-06
9.16e-07
1.80001e-06
2.0448e-06
9.16e-07
1.80001e-06
2.0448e-06
9.16e-07
1.80001e-06
2.0448e-06
9.16e-07
1.80001e-06
2.0448e-06
9.16e-07
1.80001e-06
2.0448e-06
9.16e-07
2.02501e-06
2.3004e-06
9.16e-07
1.80001e-06
2.0448e-06
9.16e-07
1.80001e-06
2.0448e-06
9.16e-07
1.80001e-06
2.0448e-06
9.16e-07
1.80001e-06
2.0448e-06
9.16e-07
1.80001e-06
2.0448e-06
9.16e-07
2.02501e-06
2.3004e-06
9.1725e-07
1.80001e-06
2.04729e-06
9.1625e-07
1.80002e-06
2.04729e-06
9.1625e-07
1.80003e-06
2.0448e-06
9.15e-07
1.80002e-06
2.0448e-06
9.29938e-07
1.80001e-06
2.04504e-06
9.30969e-07
1.80001e-06
2.04551e-06
9.45601e-07
1.80001e-06
2.048e-06
1.23476e-06
1.29317e-06
6.9738e-07
6.26461e-07
1.74855e-06
9.01614e-07
1.50327e-06
2.05418e-06
9.01031e-07
1.8344e-06
2.29536e-06
9.125e-07
1.77501e-06
2.03508e-06
9.125e-07
1.8e-06
2.03734e-06
9.115e-07
1.8e-06
2.03734e-06
9.115e-07
1.80001e-06
2.03485e-06
9.115e-07
1.80001e-06
2.03485e-06
9.115e-07
1.80001e-06
2.03485e-06
9.115e-07
2.02501e-06
2.28921e-06
9.115e-07
1.80001e-06
2.03485e-06
9.115e-07
1.80001e-06
2.03485e-06
9.115e-07
1.80001e-06
2.03485e-06
9.115e-07
1.80001e-06
2.03485e-06
9.115e-07
1.80001e-06
2.03485e-06
9.115e-07
2.02501e-06
2.28921e-06
9.115e-07
1.80001e-06
2.03485e-06
9.115e-07
1.80001e-06
2.03485e-06
9.115e-07
1.80001e-06
2.03485e-06
9.115e-07
1.80001e-06
2.03485e-06
9.115e-07
1.80001e-06
2.03485e-06
9.115e-07
2.02501e-06
2.28921e-06
9.115e-07
1.80001e-06
2.03485e-06
9.115e-07
1.80001e-06
2.03485e-06
9.115e-07
1.80001e-06
2.03485e-06
9.115e-07
1.80001e-06
2.03485e-06
9.115e-07
1.80001e-06
2.03485e-06
9.115e-07
1.80001e-06
2.03485e-06
9.115e-07
2.02501e-06
2.28921e-06
9.115e-07
1.80001e-06
2.03485e-06
9.115e-07
1.80001e-06
2.03485e-06
9.115e-07
1.80001e-06
2.03485e-06
9.115e-07
1.80001e-06
2.03485e-06
9.115e-07
1.80001e-06
2.03485e-06
9.115e-07
2.02501e-06
2.28921e-06
9.115e-07
1.80001e-06
2.03485e-06
9.115e-07
1.80001e-06
2.03485e-06
9.115e-07
1.80001e-06
2.03485e-06
9.115e-07
1.80001e-06
2.03485e-06
9.115e-07
1.80001e-06
2.03485e-06
9.115e-07
2.02501e-06
2.28921e-06
9.115e-07
1.80001e-06
2.03485e-06
9.1275e-07
1.80001e-06
2.03734e-06
9.1275e-07
1.80001e-06
2.03983e-06
9.1375e-07
1.80001e-06
2.03983e-06
9.115e-07
1.80001e-06
2.03734e-06
9.125e-07
1.8e-06
2.03734e-06
8.98812e-07
1.775e-06
2.03508e-06
1.18782e-06
1.28177e-06
6.74047e-07
8.15792e-07
2.27348e-06
8.61119e-07
1.44843e-06
2.0583e-06
8.62719e-07
1.75669e-06
2.28689e-06
8.77812e-07
1.70019e-06
2.03254e-06
8.775e-07
1.70015e-06
2.02988e-06
8.7875e-07
1.70018e-06
2.03236e-06
8.7875e-07
1.70018e-06
2.03485e-06
8.7875e-07
1.70018e-06
2.03485e-06
8.7875e-07
1.70018e-06
2.03485e-06
8.7875e-07
1.91271e-06
2.28921e-06
8.7875e-07
1.70018e-06
2.03485e-06
8.7875e-07
1.70018e-06
2.03485e-06
8.7875e-07
1.70018e-06
2.03485e-06
8.7875e-07
1.70018e-06
2.03485e-06
8.7875e-07
1.70018e-06
2.03485e-06
8.7875e-07
1.91271e-06
2.28921e-06
8.7875e-07
1.70018e-06
2.03485e-06
8.7875e-07
1.70018e-06
2.03485e-06
8.7875e-07
1.70018e-06
2.03485e-06
8.7875e-07
1.70018e-06
2.03485e-06
8.7875e-07
1.70018e-06
2.03485e-06
8.7875e-07
1.91271e-06
2.28921e-06
8.7875e-07
1.70018e-06
2.03485e-06
8.7875e-07
1.70018e-06
2.03485e-06
8.7875e-07
1.70018e-06
2.03485e-06
8.7875e-07
1.70018e-06
2.03485e-06
8.7875e-07
1.70018e-06
2.03485e-06
8.7875e-07
1.70018e-06
2.03485e-06
8.7875e-07
1.91271e-06
2.28921e-06
8.7875e-07
1.70018e-06
2.03485e-06
8.7875e-07
1.70018e-06
2.03485e-06
8.7875e-07
1.70018e-06
2.03485e-06
8.7875e-07
1.70018e-06
2.03485e-06
8.7875e-07
1.70018e-06
2.03485e-06
8.7875e-07
1.91271e-06
2.28921e-06
8.7875e-07
1.70018e-06
2.03485e-06
8.7875e-07
1.70018e-06
2.03485e-06
8.7875e-07
1.70018e-06
2.03485e-06
8.7875e-07
1.70018e-06
2.03485e-06
8.7875e-07
1.70018e-06
2.03485e-06
8.7875e-07
1.91271e-06
2.28921e-06
8.7875e-07
1.70018e-06
2.03485e-06
8.9125e-07
1.72518e-06
2.0375e-06
8.90312e-07
1.75014e-06
2.03789e-06
8.90312e-07
1.75011e-06
2.03541e-06
8.7875e-07
1.72515e-06
2.03502e-06
8.74062e-07
1.70023e-06
2.02988e-06
8.46875e-07
1.67542e-06
2.02544e-06
1.09407e-06
1.26934e-06
5.63457e-07
6.80342e-07
2.27799e-06
7.12088e-07
1.209e-06
2.04074e-06
7.10781e-07
1.43816e-06
2.2785e-06
7.12438e-07
1.37434e-06
2.02739e-06
7.13156e-07
1.37387e-06
2.02988e-06
7.13156e-07
1.37387e-06
2.02988e-06
7.13156e-07
1.37387e-06
2.02988e-06
7.13156e-07
1.37387e-06
2.02988e-06
7.13156e-07
1.37387e-06
2.02988e-06
7.13156e-07
1.54561e-06
2.28361e-06
7.13156e-07
1.37387e-06
2.02988e-06
7.13156e-07
1.37387e-06
2.02988e-06
7.13156e-07
1.37387e-06
2.02988e-06
7.13156e-07
1.37387e-06
2.02988e-06
7.13156e-07
1.37387e-06
2.02988e-06
7.13156e-07
1.54561e-06
2.28361e-06
7.13156e-07
1.37387e-06
2.02988e-06
7.13156e-07
1.37387e-06
2.02988e-06
7.13156e-07
1.37387e-06
2.02988e-06
7.13156e-07
1.37387e-06
2.02988e-06
7.13156e-07
1.37387e-06
2.02988e-06
7.13156e-07
1.54561e-06
2.28361e-06
7.13156e-07
1.37387e-06
2.02988e-06
7.13156e-07
1.37387e-06
2.02988e-06
7.13156e-07
1.37387e-06
2.02988e-06
7.13156e-07
1.37387e-06
2.02988e-06
7.13156e-07
1.37387e-06
2.02988e-06
7.13156e-07
1.37387e-06
2.02988e-06
7.13156e-07
1.54561e-06
2.28361e-06
7.13156e-07
1.37387e-06
2.02988e-06
7.13156e-07
1.37387e-06
2.02988e-06
7.13156e-07
1.37387e-06
2.02988e-06
7.13156e-07
1.37387e-06
2.02988e-06
7.13156e-07
1.37387e-06
2.02988e-06
7.13156e-07
1.54561e-06
2.28361e-06
7.13156e-07
1.37387e-06
2.02988e-06
7.13156e-07
1.37387e-06
2.02988e-06
7.13156e-07
1.37387e-06
2.02988e-06
7.13156e-07
1.37387e-06
2.02988e-06
7.13156e-07
1.37387e-06
2.02988e-06
7.13156e-07
1.54561e-06
2.28361e-06
7.13156e-07
1.37387e-06
2.02988e-06
7.25938e-07
1.37387e-06
2.02761e-06
7.39906e-07
1.39845e-06
2.02805e-06
7.37938e-07
1.42303e-06
2.02805e-06
7.25938e-07
1.42303e-06
2.02761e-06
7.27438e-07
1.42348e-06
2.03236e-06
6.83625e-07
1.35176e-06
2.04546e-06
8.03498e-07
1.26648e-06
3.54596e-07
1.87211e-06
4.6255e-07
2.47579e-06
4.46219e-07
2.72801e-06
4.47813e-07
2.58909e-06
4.55625e-07
2.58884e-06
4.55625e-07
2.58384e-06
4.55625e-07
2.58384e-06
4.55625e-07
2.58384e-06
4.55625e-07
2.58384e-06
4.55625e-07
2.90682e-06
4.55625e-07
2.58384e-06
4.55625e-07
2.58384e-06
4.55625e-07
2.58384e-06
4.55625e-07
2.58384e-06
4.55625e-07
2.58384e-06
4.55625e-07
2.90682e-06
4.55625e-07
2.58384e-06
4.55625e-07
2.58384e-06
4.55625e-07
2.58384e-06
4.55625e-07
2.58384e-06
4.55625e-07
2.58384e-06
4.55625e-07
2.90682e-06
4.55625e-07
2.58384e-06
4.55625e-07
2.58384e-06
4.55625e-07
2.58384e-06
4.55625e-07
2.58384e-06
4.55625e-07
2.58384e-06
4.55625e-07
2.58384e-06
4.55625e-07
2.90682e-06
4.55625e-07
2.58384e-06
4.55625e-07
2.58384e-06
4.55625e-07
2.58384e-06
4.55625e-07
2.58384e-06
4.55625e-07
2.58384e-06
4.55625e-07
2.90682e-06
4.55625e-07
2.58384e-06
4.55625e-07
2.58384e-06
4.55625e-07
2.58384e-06
4.55625e-07
2.58384e-06
4.55625e-07
2.58384e-06
4.55625e-07
2.90682e-06
4.55625e-07
2.58384e-06
4.55625e-07
2.58384e-06
4.62938e-07
2.58384e-06
4.56219e-07
2.59129e-06
4.55094e-07
2.59642e-06
4.53969e-07
2.58909e-06
4.03156e-07
2.54725e-06
1.50498e-06
4.01377e-07
7.37647e-07
1.80647e-06
5.30018e-07
1.37339e-06
2.3374e-06
5.0625e-07
1.63812e-06
2.58994e-06
5.09e-07
1.5635e-06
2.46497e-06
5.10375e-07
1.5635e-06
2.4724e-06
5.10375e-07
1.5635e-06
2.47487e-06
5.26969e-07
1.58829e-06
2.47858e-06
5.26969e-07
1.61308e-06
2.48244e-06
5.26969e-07
1.61308e-06
2.48244e-06
5.26969e-07
1.81471e-06
2.79274e-06
5.26969e-07
1.61308e-06
2.48244e-06
5.26969e-07
1.61308e-06
2.48244e-06
5.26969e-07
1.61308e-06
2.48244e-06
5.26969e-07
1.61308e-06
2.48244e-06
5.26969e-07
1.61308e-06
2.48244e-06
5.10375e-07
1.78682e-06
2.78839e-06
5.10375e-07
1.5635e-06
2.47487e-06
5.10375e-07
1.5635e-06
2.47487e-06
5.10375e-07
1.5635e-06
2.47487e-06
5.10375e-07
1.5635e-06
2.47487e-06
5.10375e-07
1.5635e-06
2.47487e-06
5.10375e-07
1.75893e-06
2.78423e-06
5.10375e-07
1.5635e-06
2.47487e-06
5.10375e-07
1.5635e-06
2.47487e-06
5.10375e-07
1.5635e-06
2.47487e-06
5.10375e-07
1.5635e-06
2.47487e-06
5.10375e-07
1.5635e-06
2.47487e-06
5.10375e-07
1.5635e-06
2.47487e-06
5.10375e-07
1.75893e-06
2.78423e-06
5.10375e-07
1.5635e-06
2.47487e-06
5.10375e-07
1.5635e-06
2.47487e-06
5.10375e-07
1.5635e-06
2.47487e-06
5.26969e-07
1.58829e-06
2.47858e-06
5.26969e-07
1.61308e-06
2.48244e-06
5.26969e-07
1.81471e-06
2.79274e-06
5.26969e-07
1.61308e-06
2.48244e-06
5.26969e-07
1.61308e-06
2.48244e-06
5.26969e-07
1.61308e-06
2.48244e-06
5.26969e-07
1.61308e-06
2.48244e-06
5.26969e-07
1.61308e-06
2.48244e-06
5.26969e-07
1.81471e-06
2.79274e-06
5.26969e-07
1.61308e-06
2.48244e-06
5.26969e-07
1.61308e-06
2.48244e-06
5.26969e-07
1.61308e-06
2.48244e-06
5.26969e-07
1.61308e-06
2.48244e-06
5.09625e-07
1.58829e-06
2.47858e-06
5.05375e-07
1.56417e-06
2.46497e-06
4.77625e-07
1.5176e-06
2.42133e-06
9.42896e-07
1.46884e-06
6.34505e-07
8.48199e-07
2.13415e-06
8.03268e-07
1.67532e-06
2.01685e-06
8.06531e-07
2.02396e-06
2.25753e-06
8.06531e-07
1.95256e-06
2.00749e-06
8.07812e-07
1.95269e-06
2.00999e-06
8.07812e-07
1.95282e-06
2.01249e-06
8.19094e-07
1.95282e-06
2.01392e-06
8.19094e-07
1.95282e-06
2.01559e-06
8.19094e-07
1.95282e-06
2.01559e-06
8.19094e-07
2.19693e-06
2.26754e-06
8.19094e-07
1.95282e-06
2.01559e-06
8.19094e-07
1.95282e-06
2.01559e-06
8.19094e-07
1.95282e-06
2.01559e-06
8.19094e-07
1.95282e-06
2.01559e-06
8.19094e-07
1.95282e-06
2.01559e-06
8.07812e-07
2.19693e-06
2.26565e-06
8.07812e-07
1.95282e-06
2.01249e-06
8.07812e-07
1.95282e-06
2.01249e-06
8.07812e-07
1.95282e-06
2.01249e-06
8.07812e-07
1.95282e-06
2.01249e-06
8.07812e-07
1.95282e-06
2.01249e-06
8.07812e-07
2.19693e-06
2.26405e-06
8.07812e-07
1.95282e-06
2.01249e-06
8.07812e-07
1.95282e-06
2.01249e-06
8.07812e-07
1.95282e-06
2.01249e-06
8.07812e-07
1.95282e-06
2.01249e-06
8.07812e-07
1.95282e-06
2.01249e-06
8.07812e-07
1.95282e-06
2.01249e-06
8.07812e-07
2.19693e-06
2.26405e-06
8.07812e-07
1.95282e-06
2.01249e-06
8.07812e-07
1.95282e-06
2.01249e-06
8.07812e-07
1.95282e-06
2.01249e-06
8.19094e-07
1.95282e-06
2.01392e-06
8.19094e-07
1.95282e-06
2.01559e-06
8.19094e-07
2.19693e-06
2.26754e-06
8.19094e-07
1.95282e-06
2.01559e-06
8.19094e-07
1.95282e-06
2.01559e-06
8.19094e-07
1.95282e-06
2.01559e-06
8.19094e-07
1.95282e-06
2.01559e-06
8.19094e-07
1.95282e-06
2.01559e-06
8.19094e-07
2.19693e-06
2.26754e-06
8.19094e-07
1.95282e-06
2.01559e-06
8.19094e-07
1.95282e-06
2.01559e-06
8.19094e-07
1.95282e-06
2.01559e-06
8.19094e-07
1.95282e-06
2.01559e-06
8.06531e-07
1.95269e-06
2.01143e-06
7.95094e-07
1.92747e-06
2.01143e-06
7.62187e-07
1.87652e-06
2.01676e-06
1.18957e-06
1.25401e-06
9.108e-07
1.64637e-06
2.08656e-06
1.02703e-06
2.31252e-06
2.06862e-06
1.04287e-06
2.59103e-06
2.28501e-06
1.02722e-06
2.46371e-06
2.02562e-06
1.02603e-06
2.44e-06
2.02312e-06
1.02603e-06
2.44e-06
2.02062e-06
1.02603e-06
2.44e-06
2.02062e-06
1.02603e-06
2.44e-06
2.02062e-06
1.02603e-06
2.44e-06
2.02062e-06
1.02603e-06
2.745e-06
2.2732e-06
1.02603e-06
2.44e-06
2.02062e-06
1.02603e-06
2.44e-06
2.02062e-06
1.02603e-06
2.44e-06
2.02062e-06
1.02603e-06
2.44e-06
2.02062e-06
1.02603e-06
2.44e-06
2.02062e-06
1.02603e-06
2.745e-06
2.2732e-06
1.02603e-06
2.44e-06
2.02062e-06
1.02603e-06
2.44e-06
2.02062e-06
1.02603e-06
2.44e-06
2.02062e-06
1.02603e-06
2.44e-06
2.02062e-06
1.02603e-06
2.44e-06
2.02062e-06
1.02603e-06
2.745e-06
2.2732e-06
1.02603e-06
2.44e-06
2.02062e-06
1.02603e-06
2.44e-06
2.02062e-06
1.02603e-06
2.44e-06
2.02062e-06
1.02603e-06
2.44e-06
2.02062e-06
1.02603e-06
2.44e-06
2.02062e-06
1.02603e-06
2.44e-06
2.02062e-06
1.02603e-06
2.745e-06
2.2732e-06
1.02603e-06
2.44e-06
2.02062e-06
1.02603e-06
2.44e-06
2.02062e-06
1.02603e-06
2.44e-06
2.02062e-06
1.02603e-06
2.44e-06
2.02062e-06
1.02603e-06
2.44e-06
2.02062e-06
1.02603e-06
2.745e-06
2.2732e-06
1.02603e-06
2.44e-06
2.02062e-06
1.02603e-06
2.44e-06
2.02062e-06
1.02603e-06
2.44e-06
2.02062e-06
1.02603e-06
2.44e-06
2.02062e-06
1.02603e-06
2.44e-06
2.02062e-06
1.02603e-06
2.745e-06
2.2732e-06
1.02603e-06
2.44e-06
2.02062e-06
1.02756e-06
2.44045e-06
2.02312e-06
1.02756e-06
2.44091e-06
2.02562e-06
1.02603e-06
2.44045e-06
2.02312e-06
1.04169e-06
2.46415e-06
2.02312e-06
1.03044e-06
2.48702e-06
2.02519e-06
1.00537e-06
2.43189e-06
2.03301e-06
1.50932e-06
1.28268e-06
1.1756e-06
2.00375e-06
1.54023e-06
1.19858e-06
1.92559e-06
2.05895e-06
1.23297e-06
2.10983e-06
2.31807e-06
1.22344e-06
1.90028e-06
2.0625e-06
1.23772e-06
1.9252e-06
2.06769e-06
1.23772e-06
1.95016e-06
2.0706e-06
1.23772e-06
1.95016e-06
2.0706e-06
1.23772e-06
1.95016e-06
2.0706e-06
1.23772e-06
1.95016e-06
2.0706e-06
1.23772e-06
2.19393e-06
2.32943e-06
1.23772e-06
1.95016e-06
2.0706e-06
1.23772e-06
1.95016e-06
2.0706e-06
1.23772e-06
1.95016e-06
2.0706e-06
1.23772e-06
1.95016e-06
2.0706e-06
1.23772e-06
1.95016e-06
2.0706e-06
1.23772e-06
2.19393e-06
2.32943e-06
1.23772e-06
1.95016e-06
2.0706e-06
1.23772e-06
1.95016e-06
2.0706e-06
1.23772e-06
1.95016e-06